/*--------------------------------*- C++ -*----------------------------------*\
| =========                 |                                                 |
| \\      /  F ield         | OpenFOAM: The Open Source CFD Toolbox           |
|  \\    /   O peration     | Version:  plus                                  |
|   \\  /    A nd           | Web:      www.OpenFOAM.com                      |
|    \\/     M anipulation  |                                                 |
\*---------------------------------------------------------------------------*/
FoamFile
{
    version     2.0;
    format      ascii;
    class       dictionary;
    location    "system";
    object      controlDict;
}
// * * * * * * * * * * * * * * * * * * * * * * * * * * * * * * * * * * * * * //

application     simpleGradFoam;

startFrom       startTime;

startTime       0.0;

stopAt          endTime;

endTime         60.0;

deltaT          0.005;

writeControl    timeStep;

writeInterval   1000;

purgeWrite      0;

writeFormat     ascii;

writePrecision  6;

writeCompression off;

timeFormat      general;

timePrecision   6;

runTimeModifiable true;

functions
{
        forces
    {
    type forces;
        functionObjectLibs ("libforces.so");
        patches (blockFaces);
        rho rhoInf;
        rhoInf 1; // Reference density, fluid
        CofR (.5 .75 .2); // Origin for moment calculations
        executeInterval     100;
        writeControl timeStep;
        writeInterval 1000;
    }
    forceCoeffs
    {
        type forceCoeffs;
        functionObjectLibs ("libforces.so");
        patches (blockFaces);
        // p p;
        // U U;
        rho rhoInf;
        rhoInf 1;
        CofR (.5 .75 .2);
        liftDir (0 1 0);
        dragDir (1 0 0);
        pitchAxis (0 0 1);
        magUInf 1; // Free stream velocity
        lRef 0.1; // Diameter of cylinder?
        Aref 0.04; // Ref. Area = cross sectional area?
        executeInterval     100;
        writeControl timeStep;
        writeInterval 1000;
    }
};

// ************************************************************************* //
